/*--------------------------------*- C++ -*----------------------------------*\
| =========                 |                                                 |
| \\      /  F ield         | OpenFOAM: The Open Source CFD Toolbox           |
|  \\    /   O peration     | Version:  2306                                  |
|   \\  /    A nd           | Website:  www.openfoam.com                      |
|    \\/     M anipulation  |                                                 |
\*---------------------------------------------------------------------------*/
FoamFile
{
    version     2.0;
    format      ascii;
    arch        "LSB;label=32;scalar=64";
    class       polyBoundaryMesh;
    location    "constant/polyMesh";
    object      boundary;
}
// * * * * * * * * * * * * * * * * * * * * * * * * * * * * * * * * * * * * * //

4
(
    fixedWalls
    {
        type            wall;
        inGroups        1(wall);
        nFaces          1050;
        startFace       94400;
    }
    inflowWall
    {
        type            wall;
        inGroups        1(wall);
        nFaces          50;
        startFace       95450;
    }
    outflowWall
    {
        type            wall;
        inGroups        1(wall);
        nFaces          100;
        startFace       95500;
    }
    frontAndBack
    {
        type            empty;
        inGroups        1(empty);
        nFaces          95000;
        startFace       95600;
    }
)

// ************************************************************************* //
